283
  -OEChem-07192416183D

 37 38  0     1  0  0  0  0  0999 V2000
    1.7930    0.1430   -1.5250 C   0  0  0  0  0  0  0  0  0  0  0  0
    0.4940    0.6060   -1.4440 C   0  0  0  0  0  0  0  0  0  0  0  0
    0.8250    1.1450    0.8670 C   0  0  0  0  0  0  0  0  0  0  0  0
    2.1240    0.6830    0.7920 C   0  0  0  0  0  0  0  0  0  0  0  0
    2.6120    0.1800   -0.4060 C   0  0  0  0  0  0  0  0  0  0  0  0
    3.8900   -0.2750   -0.4830 O   0  0  0  0  0  0  0  0  0  0  0  0
    4.6760   -0.2060    0.7090 C   0  0  0  0  0  0  0  0  0  0  0  0
    8.4410   -1.6960   -0.0420 C   0  0  0  0  0  0  0  0  0  0  0  0
    7.0950   -1.1640    0.2270 C   0  0  0  0  0  0  0  0  0  0  0  0
    6.0220   -0.7390    0.4400 C   0  0  0  0  0  0  0  0  0  0  0  0
    0.0100    1.1070   -0.2500 C   0  0  0  0  0  0  0  0  0  0  0  0
   -1.6820    2.6110    0.9370 O   0  0  0  0  0  0  0  0  0  0  0  0
   -2.0270    2.0490   -1.4740 O   0  0  0  0  0  0  0  0  0  0  0  0
   -1.6470    1.6980   -0.1500 S   0  0  0  0  0  0  0  0  0  0  0  0
   -2.9280    0.0200    1.6620 C   0  0  0  0  0  0  0  0  0  0  0  0
   -2.5990    0.4150    0.2850 N   0  0  3  0  0  0  0  0  0  0  0  0
   -3.2590   -0.5200   -0.6450 C   0  0  0  0  0  0  0  0  0  0  0  0
   -4.4600   -1.0900    0.1510 C   0  0  1  0  0  0  0  0  0  0  0  0
   -4.9480   -2.7170   -0.4850 S   0  0  0  0  0  0  0  0  0  0  0  0
   -3.8600   -1.2070    1.5770 C   0  0  0  0  0  0  0  0  0  0  0  0
    2.1690   -0.2520   -2.4570 H   0  0  0  0  0  0  0  0  0  0  0  0
   -0.1440    0.5770   -2.3150 H   0  0  0  0  0  0  0  0  0  0  0  0
    0.4440    1.5360    1.7990 H   0  0  0  0  0  0  0  0  0  0  0  0
    2.7600    0.7120    1.6640 H   0  0  0  0  0  0  0  0  0  0  0  0
    4.7540    0.8310    1.0330 H   0  0  0  0  0  0  0  0  0  0  0  0
    4.2010   -0.7970    1.4920 H   0  0  0  0  0  0  0  0  0  0  0  0
    9.0410   -1.6430    0.8670 H   0  0  0  0  0  0  0  0  0  0  0  0
    8.3630   -2.7340   -0.3660 H   0  0  0  0  0  0  0  0  0  0  0  0
    8.9160   -1.1050   -0.8250 H   0  0  0  0  0  0  0  0  0  0  0  0
   -2.0170   -0.2430    2.2000 H   0  0  0  0  0  0  0  0  0  0  0  0
   -3.4380    0.8380    2.1710 H   0  0  0  0  0  0  0  0  0  0  0  0
   -3.6090    0.0100   -1.5310 H   0  0  0  0  0  0  0  0  0  0  0  0
   -2.5760   -1.3210   -0.9270 H   0  0  0  0  0  0  0  0  0  0  0  0
   -5.3020   -0.3980    0.1370 H   0  0  0  0  0  0  0  0  0  0  0  0
   -5.9820   -3.0540    0.3070 H   0  0  0  0  0  0  0  0  0  0  0  0
   -3.2920   -2.1310    1.6820 H   0  0  0  0  0  0  0  0  0  0  0  0
   -4.6450   -1.1480    2.3310 H   0  0  0  0  0  0  0  0  0  0  0  0
  1  2  1  0  0  0  0
  1  5  2  0  0  0  0
  1 21  1  0  0  0  0
  2 11  2  0  0  0  0
  2 22  1  0  0  0  0
  3 11  1  0  0  0  0
  3  4  2  0  0  0  0
  3 23  1  0  0  0  0
  4  5  1  0  0  0  0
  4 24  1  0  0  0  0
  5  6  1  0  0  0  0
  6  7  1  0  0  0  0
  7 10  1  0  0  0  0
  7 25  1  0  0  0  0
  7 26  1  0  0  0  0
  8  9  1  0  0  0  0
  8 27  1  0  0  0  0
  8 28  1  0  0  0  0
  8 29  1  0  0  0  0
  9 10  3  0  0  0  0
 11 14  1  0  0  0  0
 12 14  2  0  0  0  0
 13 14  2  0  0  0  0
 14 16  1  0  0  0  0
 15 16  1  0  0  0  0
 15 20  1  0  0  0  0
 15 30  1  0  0  0  0
 15 31  1  0  0  0  0
 16 17  1  0  0  0  0
 17 18  1  0  0  0  0
 17 32  1  0  0  0  0
 17 33  1  0  0  0  0
 18 20  1  0  0  0  0
 18 19  1  0  0  0  0
 18 34  1  0  0  0  0
 19 35  1  0  0  0  0
 20 36  1  0  0  0  0
 20 37  1  0  0  0  0
M  END
> <OPENEYE_ISO_SMILES>
CC#CCOc1ccc(cc1)S(=O)(=O)N2CC[C@@H](C2)S

> <OPENEYE_INCHI>
InChI=1S/C14H17NO3S2/c1-2-3-10-18-12-4-6-14(7-5-12)20(16,17)15-9-8-13(19)11-15/h4-7,13,19H,8-11H2,1H3/t13-/m0/s1

> <OPENEYE_INCHIKEY>
BLIQFUCBRCDFAI-ZDUSSCGKSA-N

> <FORMULA>
C14H17NO3S2

$$$$
