283
  -OEChem-08092421233D

 37 38  0     1  0  0  0  0  0999 V2000
   46.0850   28.4790    2.5260 C   0  0  0  0  0  0  0  0  0  0  0  0
   45.1140   28.8150    1.5370 C   0  0  0  0  0  0  0  0  0  0  0  0
   43.3680   28.5170    3.1750 C   0  0  0  0  0  0  0  0  0  0  0  0
   44.3110   28.1830    4.1440 C   0  0  0  0  0  0  0  0  0  0  0  0
   45.6660   28.1620    3.8390 C   0  0  0  0  0  0  0  0  0  0  0  0
   46.4720   27.8170    4.9230 O   0  0  0  0  0  0  0  0  0  0  0  0
   47.9140   27.7740    4.7600 C   0  0  0  0  0  0  0  0  0  0  0  0
   48.5850   23.9670    3.0390 C   0  0  0  0  0  0  0  0  0  0  0  0
   48.4120   25.3010    3.6900 C   0  0  0  0  0  0  0  0  0  0  0  0
   48.2690   26.3640    4.1920 C   0  0  0  0  0  0  0  0  0  0  0  0
   43.7530   28.8330    1.8840 C   0  0  0  0  0  0  0  0  0  0  0  0
   42.9950   28.7670   -0.4940 O   0  0  0  0  0  0  0  0  0  0  0  0
   41.1530   28.7870    1.1990 O   0  0  0  0  0  0  0  0  0  0  0  0
   42.4650   29.2650    0.7610 S   0  0  0  0  0  0  0  0  0  0  0  0
   40.8840   31.5860    0.4110 C   0  0  0  0  0  0  0  0  0  0  0  0
   42.2240   31.0160    0.7550 N   0  0  1  0  0  0  0  0  0  0  0  0
   42.4910   31.6260    2.0950 C   0  0  0  0  0  0  0  0  0  0  0  0
   41.2000   31.4320    2.8880 C   0  0  1  0  0  0  0  0  0  0  0  0
   41.1580   31.9760    4.5860 S   0  0  0  0  0  0  0  0  0  0  0  0
   40.2900   31.9010    1.7620 C   0  0  0  0  0  0  0  0  0  0  0  0
   47.1350   28.4670    2.2740 H   0  0  0  0  0  0  0  0  0  0  0  0
   45.4220   29.0540    0.5300 H   0  0  0  0  0  0  0  0  0  0  0  0
   42.3200   28.5300    3.4350 H   0  0  0  0  0  0  0  0  0  0  0  0
   43.9850   27.9380    5.1440 H   0  0  0  0  0  0  0  0  0  0  0  0
   48.2430   28.5590    4.0630 H   0  0  0  0  0  0  0  0  0  0  0  0
   48.4210   27.9470    5.7210 H   0  0  0  0  0  0  0  0  0  0  0  0
   48.6280   24.0940    1.9470 H   0  0  0  0  0  0  0  0  0  0  0  0
   49.5200   23.5060    3.3910 H   0  0  0  0  0  0  0  0  0  0  0  0
   47.7350   23.3190    3.3000 H   0  0  0  0  0  0  0  0  0  0  0  0
   40.9740   32.4870   -0.2130 H   0  0  0  0  0  0  0  0  0  0  0  0
   40.2630   30.8980   -0.1820 H   0  0  0  0  0  0  0  0  0  0  0  0
   43.3360   31.1270    2.5920 H   0  0  0  0  0  0  0  0  0  0  0  0
   42.7660   32.6880    2.0140 H   0  0  0  0  0  0  0  0  0  0  0  0
   40.9040   30.4530    3.2940 H   0  0  0  0  0  0  0  0  0  0  0  0
   41.1480   30.9410    5.3730 H   0  0  0  0  0  0  0  0  0  0  0  0
   40.1530   32.9890    1.8450 H   0  0  0  0  0  0  0  0  0  0  0  0
   39.3270   31.3760    1.8500 H   0  0  0  0  0  0  0  0  0  0  0  0
  1  2  1  0  0  0  0
  1  5  2  0  0  0  0
  1 21  1  0  0  0  0
  2 11  2  0  0  0  0
  2 22  1  0  0  0  0
  3 11  1  0  0  0  0
  3  4  2  0  0  0  0
  3 23  1  0  0  0  0
  4  5  1  0  0  0  0
  4 24  1  0  0  0  0
  5  6  1  0  0  0  0
  6  7  1  0  0  0  0
  7 10  1  0  0  0  0
  7 25  1  0  0  0  0
  7 26  1  0  0  0  0
  8  9  1  0  0  0  0
  8 27  1  0  0  0  0
  8 28  1  0  0  0  0
  8 29  1  0  0  0  0
  9 10  3  0  0  0  0
 11 14  1  0  0  0  0
 12 14  2  0  0  0  0
 13 14  2  0  0  0  0
 14 16  1  0  0  0  0
 15 16  1  0  0  0  0
 15 20  1  0  0  0  0
 15 30  1  0  0  0  0
 15 31  1  0  0  0  0
 16 17  1  0  0  0  0
 17 18  1  0  0  0  0
 17 32  1  0  0  0  0
 17 33  1  0  0  0  0
 18 20  1  0  0  0  0
 18 19  1  0  0  0  0
 18 34  1  0  0  0  0
 19 35  1  0  0  0  0
 20 36  1  0  0  0  0
 20 37  1  0  0  0  0
M  END
> <OPENEYE_ISO_SMILES>
CC#CCOc1ccc(cc1)S(=O)(=O)[N@]2CC[C@@H](C2)S

> <OPENEYE_INCHI>
InChI=1S/C14H17NO3S2/c1-2-3-10-18-12-4-6-14(7-5-12)20(16,17)15-9-8-13(19)11-15/h4-7,13,19H,8-11H2,1H3/t13-/m0/s1

> <OPENEYE_INCHIKEY>
BLIQFUCBRCDFAI-ZDUSSCGKSA-N

> <FORMULA>
C14H17NO3S2

$$$$
