TA1
  -OEChem-10272323123D

113119  0     1  0  0  0  0  0999 V2000
   -1.4460    2.7560    1.6630 O   0  0  0  0  0  0  0  0  0  0  0  0
   -0.4380    1.7280    1.7150 C   0  0  1  0  0  0  0  0  0  0  0  0
   -1.0200    0.5890    2.5810 C   0  0  1  0  0  0  0  0  0  0  0  0
   -2.2750    0.2110    1.9050 O   0  0  0  0  0  0  0  0  0  0  0  0
   -3.4250    0.8400    2.2170 C   0  0  0  0  0  0  0  0  0  0  0  0
   -3.4280    1.7190    3.0560 O   0  0  0  0  0  0  0  0  0  0  0  0
   -4.6820    0.4610    1.5400 C   0  0  0  0  0  0  0  0  0  0  0  0
   -5.8750    1.1110    1.8610 C   0  0  0  0  0  0  0  0  0  0  0  0
   -7.0450    0.7530    1.2240 C   0  0  0  0  0  0  0  0  0  0  0  0
   -7.0380   -0.2480    0.2700 C   0  0  0  0  0  0  0  0  0  0  0  0
   -5.8600   -0.8960   -0.0530 C   0  0  0  0  0  0  0  0  0  0  0  0
   -4.6810   -0.5440    0.5710 C   0  0  0  0  0  0  0  0  0  0  0  0
   -0.1070   -0.6310    2.6580 C   0  0  2  0  0  0  0  0  0  0  0  0
   -0.7070   -1.8450    1.9970 C   0  0  2  0  0  0  0  0  0  0  0  0
   -0.5420   -1.7830    0.5430 O   0  0  0  0  0  0  0  0  0  0  0  0
   -0.8940   -2.8300   -0.2180 C   0  0  0  0  0  0  0  0  0  0  0  0
   -1.4430   -3.7830    0.2820 O   0  0  0  0  0  0  0  0  0  0  0  0
   -0.6050   -2.8180   -1.6970 C   0  0  0  0  0  0  0  0  0  0  0  0
   -2.1260   -2.2350    2.4130 C   0  0  0  0  0  0  0  0  0  0  0  0
   -1.6230   -3.2810    3.2520 O   0  0  0  0  0  0  0  0  0  0  0  0
   -0.3960   -3.2400    2.5220 C   0  0  2  0  0  0  0  0  0  0  0  0
    0.8290   -3.2930    3.4350 C   0  0  0  0  0  0  0  0  0  0  0  0
    0.6530   -2.2200    4.5030 C   0  0  2  0  0  0  0  0  0  0  0  0
   -0.5840   -2.3480    5.1870 O   0  0  0  0  0  0  0  0  0  0  0  0
    0.7410   -0.8270    3.8700 C   0  0  2  0  0  0  0  0  0  0  0  0
    0.2510    0.0430    5.0160 C   0  0  0  0  0  0  0  0  0  0  0  0
    2.2080   -0.5250    3.6970 C   0  0  0  0  0  0  0  0  0  0  0  0
    3.0200   -1.4390    3.7870 O   0  0  0  0  0  0  0  0  0  0  0  0
    2.6950    0.8840    3.4240 C   0  0  2  0  0  0  0  0  0  0  0  0
    2.6720    1.7170    4.5990 O   0  0  0  0  0  0  0  0  0  0  0  0
    3.7290    1.7400    5.4270 C   0  0  0  0  0  0  0  0  0  0  0  0
    4.7000    1.0630    5.1850 O   0  0  0  0  0  0  0  0  0  0  0  0
    3.7040    2.6110    6.6560 C   0  0  0  0  0  0  0  0  0  0  0  0
    1.8890    1.3580    2.2500 C   0  0  0  0  0  0  0  0  0  0  0  0
    2.1410    0.8300    1.0550 C   0  0  0  0  0  0  0  0  0  0  0  0
    1.2630    1.2060   -0.1150 C   0  0  1  0  0  0  0  0  0  0  0  0
    1.4080    0.1770   -1.1450 O   0  0  0  0  0  0  0  0  0  0  0  0
    2.3700    0.2890   -2.0750 C   0  0  0  0  0  0  0  0  0  0  0  0
    3.1160    1.2400   -2.0610 O   0  0  0  0  0  0  0  0  0  0  0  0
    2.5190   -0.7690   -3.1360 C   0  0  2  0  0  0  0  0  0  0  0  0
    3.6040   -0.4270   -4.0010 O   0  0  0  0  0  0  0  0  0  0  0  0
    1.2270   -0.8610   -3.9510 C   0  0  1  0  0  0  0  0  0  0  0  0
    0.9570    0.4310   -4.5850 N   0  0  0  0  0  0  0  0  0  0  0  0
   -0.3130    0.8110   -4.8250 C   0  0  0  0  0  0  0  0  0  0  0  0
   -1.2340    0.0820   -4.5150 O   0  0  0  0  0  0  0  0  0  0  0  0
   -0.5860    2.1150   -5.4650 C   0  0  0  0  0  0  0  0  0  0  0  0
   -1.9000    2.5120   -5.7150 C   0  0  0  0  0  0  0  0  0  0  0  0
   -2.1480    3.7310   -6.3120 C   0  0  0  0  0  0  0  0  0  0  0  0
   -1.0970    4.5590   -6.6640 C   0  0  0  0  0  0  0  0  0  0  0  0
    0.2080    4.1710   -6.4200 C   0  0  0  0  0  0  0  0  0  0  0  0
    0.4690    2.9580   -5.8180 C   0  0  0  0  0  0  0  0  0  0  0  0
    1.3770   -1.9200   -5.0120 C   0  0  0  0  0  0  0  0  0  0  0  0
    0.5230   -3.0080   -5.0290 C   0  0  0  0  0  0  0  0  0  0  0  0
    0.6610   -3.9790   -6.0020 C   0  0  0  0  0  0  0  0  0  0  0  0
    1.6510   -3.8630   -6.9600 C   0  0  0  0  0  0  0  0  0  0  0  0
    2.5040   -2.7760   -6.9440 C   0  0  0  0  0  0  0  0  0  0  0  0
    2.3640   -1.8020   -5.9730 C   0  0  0  0  0  0  0  0  0  0  0  0
   -0.2030    1.2770    0.2870 C   0  0  0  0  0  0  0  0  0  0  0  0
    3.3010   -0.1220    0.8370 C   0  0  0  0  0  0  0  0  0  0  0  0
    0.8010    2.3750    2.3110 C   0  0  0  0  0  0  0  0  0  0  0  0
    1.1900    3.6100    1.4770 C   0  0  0  0  0  0  0  0  0  0  0  0
    0.4730    2.8950    3.7060 C   0  0  0  0  0  0  0  0  0  0  0  0
   -2.2310    2.3570    1.2620 H   0  0  0  0  0  0  0  0  0  0  0  0
   -1.3350    0.9800    3.5430 H   0  0  0  0  0  0  0  0  0  0  0  0
   -5.8820    1.8930    2.6070 H   0  0  0  0  0  0  0  0  0  0  0  0
   -7.9690    1.2550    1.4720 H   0  0  0  0  0  0  0  0  0  0  0  0
   -7.9570   -0.5240   -0.2250 H   0  0  0  0  0  0  0  0  0  0  0  0
   -5.8610   -1.6770   -0.7980 H   0  0  0  0  0  0  0  0  0  0  0  0
   -3.7620   -1.0510    0.3180 H   0  0  0  0  0  0  0  0  0  0  0  0
    0.6630   -0.3820    1.8910 H   0  0  0  0  0  0  0  0  0  0  0  0
   -0.9600   -3.7460   -2.1440 H   0  0  0  0  0  0  0  0  0  0  0  0
   -1.1140   -1.9730   -2.1600 H   0  0  0  0  0  0  0  0  0  0  0  0
    0.4690   -2.7260   -1.8560 H   0  0  0  0  0  0  0  0  0  0  0  0
   -2.7370   -2.6080    1.5850 H   0  0  0  0  0  0  0  0  0  0  0  0
   -2.6630   -1.4870    3.0030 H   0  0  0  0  0  0  0  0  0  0  0  0
   -0.3460   -3.9900    1.7300 H   0  0  0  0  0  0  0  0  0  0  0  0
    1.7280   -3.1050    2.8510 H   0  0  0  0  0  0  0  0  0  0  0  0
    0.8930   -4.2780    3.9000 H   0  0  0  0  0  0  0  0  0  0  0  0
    1.4710   -2.2970    5.2270 H   0  0  0  0  0  0  0  0  0  0  0  0
   -0.6010   -3.2350    5.5700 H   0  0  0  0  0  0  0  0  0  0  0  0
    0.6760    1.0430    4.9200 H   0  0  0  0  0  0  0  0  0  0  0  0
   -0.8360    0.1060    4.9850 H   0  0  0  0  0  0  0  0  0  0  0  0
    0.5630   -0.3930    5.9640 H   0  0  0  0  0  0  0  0  0  0  0  0
    3.7670    0.8250    3.1210 H   0  0  0  0  0  0  0  0  0  0  0  0
    4.6420    2.4990    7.2000 H   0  0  0  0  0  0  0  0  0  0  0  0
    3.5770    3.6530    6.3610 H   0  0  0  0  0  0  0  0  0  0  0  0
    2.8740    2.3110    7.2970 H   0  0  0  0  0  0  0  0  0  0  0  0
    1.5900    2.1470   -0.5540 H   0  0  0  0  0  0  0  0  0  0  0  0
    2.7200   -1.7310   -2.6640 H   0  0  0  0  0  0  0  0  0  0  0  0
    3.3870    0.4270   -4.3980 H   0  0  0  0  0  0  0  0  0  0  0  0
    0.4000   -1.1220   -3.2910 H   0  0  0  0  0  0  0  0  0  0  0  0
    1.6920    1.0130   -4.8330 H   0  0  0  0  0  0  0  0  0  0  0  0
   -2.7220    1.8670   -5.4410 H   0  0  0  0  0  0  0  0  0  0  0  0
   -3.1650    4.0390   -6.5060 H   0  0  0  0  0  0  0  0  0  0  0  0
   -1.2960    5.5110   -7.1320 H   0  0  0  0  0  0  0  0  0  0  0  0
    1.0240    4.8220   -6.6970 H   0  0  0  0  0  0  0  0  0  0  0  0
    1.4890    2.6560   -5.6270 H   0  0  0  0  0  0  0  0  0  0  0  0
   -0.2490   -3.0980   -4.2800 H   0  0  0  0  0  0  0  0  0  0  0  0
   -0.0050   -4.8290   -6.0150 H   0  0  0  0  0  0  0  0  0  0  0  0
    1.7580   -4.6230   -7.7200 H   0  0  0  0  0  0  0  0  0  0  0  0
    3.2780   -2.6850   -7.6920 H   0  0  0  0  0  0  0  0  0  0  0  0
    3.0300   -0.9520   -5.9600 H   0  0  0  0  0  0  0  0  0  0  0  0
   -0.6750    0.3120    0.1230 H   0  0  0  0  0  0  0  0  0  0  0  0
   -0.7040    1.9930   -0.3800 H   0  0  0  0  0  0  0  0  0  0  0  0
    3.3350   -0.4190   -0.2100 H   0  0  0  0  0  0  0  0  0  0  0  0
    4.2340    0.3740    1.1040 H   0  0  0  0  0  0  0  0  0  0  0  0
    3.1690   -1.0050    1.4610 H   0  0  0  0  0  0  0  0  0  0  0  0
    1.2040    3.3440    0.4200 H   0  0  0  0  0  0  0  0  0  0  0  0
    0.4620    4.4040    1.6430 H   0  0  0  0  0  0  0  0  0  0  0  0
    2.1790    3.9550    1.7790 H   0  0  0  0  0  0  0  0  0  0  0  0
    1.3980    3.1190    4.2370 H   0  0  0  0  0  0  0  0  0  0  0  0
   -0.1270    3.8010    3.6240 H   0  0  0  0  0  0  0  0  0  0  0  0
   -0.0850    2.1360    4.2540 H   0  0  0  0  0  0  0  0  0  0  0  0
  1  2  1  0  0  0  0
  1 63  1  0  0  0  0
  2  3  1  0  0  0  0
  2 58  1  0  0  0  0
  2 60  1  0  0  0  0
  3  4  1  0  0  0  0
  3 13  1  0  0  0  0
  3 64  1  0  0  0  0
  4  5  1  0  0  0  0
  5  6  2  0  0  0  0
  5  7  1  0  0  0  0
  7  8  2  0  0  0  0
  7 12  1  0  0  0  0
  8  9  1  0  0  0  0
  8 65  1  0  0  0  0
  9 10  2  0  0  0  0
  9 66  1  0  0  0  0
 10 11  1  0  0  0  0
 10 67  1  0  0  0  0
 11 12  2  0  0  0  0
 11 68  1  0  0  0  0
 12 69  1  0  0  0  0
 13 14  1  0  0  0  0
 13 25  1  0  0  0  0
 13 70  1  0  0  0  0
 14 15  1  0  0  0  0
 14 19  1  0  0  0  0
 14 21  1  0  0  0  0
 15 16  1  0  0  0  0
 16 17  2  0  0  0  0
 16 18  1  0  0  0  0
 18 71  1  0  0  0  0
 18 72  1  0  0  0  0
 18 73  1  0  0  0  0
 19 20  1  0  0  0  0
 19 74  1  0  0  0  0
 19 75  1  0  0  0  0
 20 21  1  0  0  0  0
 21 22  1  0  0  0  0
 21 76  1  0  0  0  0
 22 23  1  0  0  0  0
 22 77  1  0  0  0  0
 22 78  1  0  0  0  0
 23 24  1  0  0  0  0
 23 25  1  0  0  0  0
 23 79  1  0  0  0  0
 24 80  1  0  0  0  0
 25 26  1  0  0  0  0
 25 27  1  0  0  0  0
 26 81  1  0  0  0  0
 26 82  1  0  0  0  0
 26 83  1  0  0  0  0
 27 28  2  0  0  0  0
 27 29  1  0  0  0  0
 29 30  1  0  0  0  0
 29 34  1  0  0  0  0
 29 84  1  0  0  0  0
 30 31  1  0  0  0  0
 31 32  2  0  0  0  0
 31 33  1  0  0  0  0
 33 85  1  0  0  0  0
 33 86  1  0  0  0  0
 33 87  1  0  0  0  0
 34 35  2  0  0  0  0
 34 60  1  0  0  0  0
 35 36  1  0  0  0  0
 35 59  1  0  0  0  0
 36 37  1  0  0  0  0
 36 58  1  0  0  0  0
 36 88  1  0  0  0  0
 37 38  1  0  0  0  0
 38 39  2  0  0  0  0
 38 40  1  0  0  0  0
 40 41  1  0  0  0  0
 40 42  1  0  0  0  0
 40 89  1  0  0  0  0
 41 90  1  0  0  0  0
 42 43  1  0  0  0  0
 42 52  1  0  0  0  0
 42 91  1  0  0  0  0
 43 44  1  0  0  0  0
 43 92  1  0  0  0  0
 44 45  2  0  0  0  0
 44 46  1  0  0  0  0
 46 47  2  0  0  0  0
 46 51  1  0  0  0  0
 47 48  1  0  0  0  0
 47 93  1  0  0  0  0
 48 49  2  0  0  0  0
 48 94  1  0  0  0  0
 49 50  1  0  0  0  0
 49 95  1  0  0  0  0
 50 51  2  0  0  0  0
 50 96  1  0  0  0  0
 51 97  1  0  0  0  0
 52 53  2  0  0  0  0
 52 57  1  0  0  0  0
 53 54  1  0  0  0  0
 53 98  1  0  0  0  0
 54 55  2  0  0  0  0
 54 99  1  0  0  0  0
 55 56  1  0  0  0  0
 55100  1  0  0  0  0
 56 57  2  0  0  0  0
 56101  1  0  0  0  0
 57102  1  0  0  0  0
 58103  1  0  0  0  0
 58104  1  0  0  0  0
 59105  1  0  0  0  0
 59106  1  0  0  0  0
 59107  1  0  0  0  0
 60 61  1  0  0  0  0
 60 62  1  0  0  0  0
 61108  1  0  0  0  0
 61109  1  0  0  0  0
 61110  1  0  0  0  0
 62111  1  0  0  0  0
 62112  1  0  0  0  0
 62113  1  0  0  0  0
M  END
> <OPENEYE_ISO_SMILES>
CC1=C2[C@H](C(=O)[C@@]3([C@H](C[C@@H]4[C@]([C@H]3[C@@H]([C@@](C2(C)C)(C[C@@H]1OC(=O)[C@@H]([C@H](c5ccccc5)NC(=O)c6ccccc6)O)O)OC(=O)c7ccccc7)(CO4)OC(=O)C)O)C)OC(=O)C

> <OPENEYE_INCHI>
InChI=1S/C47H51NO14/c1-25-31(60-43(56)36(52)35(28-16-10-7-11-17-28)48-41(54)29-18-12-8-13-19-29)23-47(57)40(61-42(55)30-20-14-9-15-21-30)38-45(6,32(51)22-33-46(38,24-58-33)62-27(3)50)39(53)37(59-26(2)49)34(25)44(47,4)5/h7-21,31-33,35-38,40,51-52,57H,22-24H2,1-6H3,(H,48,54)/t31-,32-,33+,35-,36+,37+,38-,40-,45+,46-,47+/m0/s1

> <OPENEYE_INCHIKEY>
RCINICONZNJXQF-MZXODVADSA-N

> <FORMULA>
C47H51NO14

$$$$
